%chk=C:\Users\chemistry\Documents\Gruppe H\inputCC_ÜZ.chk
# opt=(calcfc,ts) freq hf/cc-pvdz geom=connectivity

Title Card Required

-1 1
 C                  0.80100800    0.00029600    0.00043900
 H                  0.76673600   -0.72775700    0.78324600
 H                  0.76593900   -0.31406200   -1.02135500
 H                  0.76640800    1.04229400    0.23912900
 Br                -1.71092000   -0.00003100   -0.00004600
 Cl                 3.10453400   -0.00006800   -0.00012100

 1 2 1.0 3 1.0 4 1.0
 2
 3
 4
 5
 6

