%chk=C:\Users\chemistry\Documents\Gruppe H\input‹Z.chk
# opt=(calcfc,ts) freq hf/sto-3g geom=connectivity

Title Card Required

-1 1
 C                  0.87009100    0.00000000    0.00003100
 H                  0.80810500   -0.91714800   -0.52941200
 H                  0.80810500    0.91714900   -0.52941100
 H                  0.80801600    0.00000000    1.05902300
 Br                -1.75818200    0.00000000   -0.00000600
 Cl                 3.17009300    0.00000000   -0.00001100

 1 2 1.0 3 1.0 4 1.0
 2
 3
 4
 5
 6

