%chk=C:\Users\chemistry\Documents\Gruppe H\inputOptimierung3.chk
# opt freq hf/sto-3g geom=connectivity

Title Card Required

-1 1
 C                  1.24093000   -0.00079000    0.00000000
 H                  0.98086500    0.51663000   -0.89624700
 H                  0.98086500    0.51663000    0.89624800
 H                  0.98165700   -1.03586500    0.00000000
 Br                -1.87099500    0.00008100    0.00000000
 Cl                 3.24093300    0.00026500    0.00000000

 1 2 1.0 3 1.0 4 1.0
 2
 3
 4
 5
 6

